
%%%%%%%%%%%%%%%%%%%%%%%%%%%%%%%%%%%%%%%%%%%%%%%%%%%%%%%%%%%%%%%%%
%                                                               %
% Stanford University unstructured (SU2) configuration file     %
%                                                               %
%%%%%%%%%%%%%%%%%%%%%%%%%%%%%%%%%%%%%%%%%%%%%%%%%%%%%%%%%%%%%%%%%


%%%%% Problem Definition
% --- Options related to problem definition and partitioning ---

%  Physical governing equations
PHYSICAL_PROBLEM= EULER



%%%%% Freestream Conditions
% --- Options related to freestream specification ---

%  Mach number (non-dimensional, based on the free-stream values)
MACH_NUMBER= 0.8

%  Angle of attack (degrees, only for compressible flows)
AOA= 1.25



%%%%% Reference Conditions
% --- Options related to reference values for nondimensionalization ---

%  X Reference origin for moment computation
REF_ORIGIN_MOMENT_X= (0.25)

%  Y Reference origin for moment computation
REF_ORIGIN_MOMENT_Y= (0)

%  Z Reference origin for moment computation
REF_ORIGIN_MOMENT_Z= (0)

%  Reference pressure (1.0 N/m^2 by default, only for compressible flows)
REF_PRESSURE= 101325

%  Reference temperature (1.0 K by default, only for compressible flows)
REF_TEMPERATURE= 273.15

%  Reference density (1.0 Kg/m^3 by default, only for compressible flows)
REF_DENSITY= 1.2886



%%%%% Boundary Markers
% --- Options related to various boundary markers ---

%  Marker(s) of the surface in the surface flow solution file
MARKER_PLOTTING= airfoil

%  Marker(s) of the surface where evaluate the non-dimensional coefficients
MARKER_MONITORING= airfoil

%  Euler wall boundary marker(s)
MARKER_EULER= airfoil

%  Far-field boundary marker(s)
MARKER_FAR= farfield



%%%%% Time-marching
% --- Options related to time-marching ---

%  Courant-Friedrichs-Lewy condition of the finest grid
CFL_NUMBER= 4

%  Number of total iterations
EXT_ITER= 110

%  Runge-Kutta alpha coefficients
RK_ALPHA_COEFF= (0.66667, 0.66667, 1)



%%%%% Linear solver definition
% --- Options related to the linear solvers ---

%  Linear solver for the implicit, mesh deformation, or discrete adjoint systems
LINEAR_SOLVER= BCGSTAB

%  Minimum error threshold for the linear solver for the implicit formulation
LINEAR_SOLVER_ERROR= 1e-06

%  Maximum number of iterations of the linear solver for the implicit formulation
LINEAR_SOLVER_ITER= 5



%%%%% Convergence
% --- Options related to convergence ---

%  Residual reduction (order of magnitude with respect to the initial value)
RESIDUAL_REDUCTION= 6

%  Min value of the residual (log10 of the residual)
RESIDUAL_MINVAL= -10

%  Iteration number to begin convergence monitoring
STARTCONV_ITER= 10

%  Epsilon to control the series convergence
CAUCHY_EPS= 1e-06

%  Epsilon for a full multigrid method evaluation
FULLMG_CAUCHY_EPS= 0.001



%%%%% Multi-grid
% --- Options related to Multi-grid ---

%  Multi-grid Levels
MGLEVEL= 0

%  Multi-grid Cycle (0 = V cycle, 1 = W Cycle)
MGCYCLE= 1

%  Multi-grid pre-smoothing level
MG_PRE_SMOOTH= (1, 2, 2, 2)

%  Multi-grid post-smoothing level
MG_POST_SMOOTH= (1, 1, 1, 1)

%  Jacobi implicit smoothing of the correction
MG_CORRECTION_SMOOTH= (1, 1, 1, 1)

%  Damping factor for the residual restriction
MG_DAMP_RESTRICTION= 1

%  Damping factor for the correction prolongation
MG_DAMP_PROLONGATION= 1

%  Maximum number of children in the agglomeration stage
MAX_CHILDREN= 150



%%%%% Spatial Discretization
% --- Options related to the spatial discretization ---

%  Coefficient for the limiter
LIMITER_COEFF= 0.1

%  Convective numerical method
CONV_NUM_METHOD_FLOW= ROE

%  Source term numerical method
SOUR_NUM_METHOD_FLOW= PIECEWISE_CONSTANT

%  Spatial numerical order integration
SPATIAL_ORDER_FLOW= 2ND_ORDER_LIMITER



%%%%% Adjoint and Gradient
% --- Options related to the adjoint and gradient ---



%%%%% Input/output files and formats
% --- Options related to input/output files and formats ---

%  Mesh input file
MESH_FILENAME= mesh_NACA0012_inv.su2

%  Writing solution file frequency
WRT_SOL_FREQ= 250



%%%%% Dynamic mesh definition
% --- Options related to dynamic meshes ---



%%%%% Grid adaptation
% --- Options related to grid adaptation ---



%%%%% Wind Gust
% --- Options related to wind gust simulations ---



%%%%% Equivalent Area
% --- Options related to the equivalent area ---



%%%%% Reacting Flow
% --- Options related to the reacting gas mixtures ---



%%%%% Free surface simulation
% --- Options related to free surface simulation ---



%%%%% Grid deformation
% --- Options related to the grid deformation ---



%%%%% Rotorcraft problem
% --- option related to rotorcraft problems ---



%%%%% FEA solver
% --- Options related to the FEA solver ---



%%%%% Wave solver
% --- options related to the wave solver ---



%%%%% Heat solver
% --- options related to the heat solver ---



%%%%% Visualize Control Volumes
% --- options related to visualizing control volumes ---



%%%%% Inverse design problem
% --- options related to inverse design problem ---



%%%%% Unsupported options
% --- Options that are experimental and not intended for general use ---



%%%%% FFD point inversion
%  DESCRIPTION: Number of total iterations in the FFD point inversion 



%%%%% Python Options
%  DESCRIPTION: Setup for design variables 

