PHYSICAL_PROBLEM= EULER
MATH_PROBLEM= DIRECT
RESTART_SOL= NO
REF_PRESSURE= 101325.0
REF_TEMPERATURE= 273.15
REF_DENSITY= 1.2886
REF_ELEM_LENGTH= 0.1
MACH_NUMBER= 0.05
AoA= 0.0
FREESTREAM_PRESSURE= 101325.0
FREESTREAM_TEMPERATURE= 273.15
FREESTREAM_DENSITY= 1.2886
FREESTREAM_OPTION= DENSITY_FS
FLUID_MODEL= IDEAL_GAS
CRITICAL_TEMPERATURE= 131.0
CRITICAL_PRESSURE= 3588550.0
CRITICAL_DENSITY= 263.0
ACENTRIC_FACTOR= 0.035
GAMMA_VALUE= 1.4
GAS_CONSTANT= 287.87
MARKER_EULER= ( wall1 )
MARKER_INLET= ( inflow, 473.1, 500000.0, 1.0, 0.0, 0.0 )
MARKER_OUTLET= ( outflow, 25449.0 )
MARKER_SYM= ( symmetry )
MARKER_PLOTTING= ( wall1 )
NUM_METHOD_GRAD= GREEN_GAUSS
CFL_NUMBER= 2.0
CFL_RAMP= ( 1.5, 100, 20.0 )
RK_ALPHA_COEFF= ( 0.66667, 0.66667, 1.000000 )
EXT_ITER= 2000
LINEAR_SOLVER= FGMRES
LINEAR_SOLVER_PREC= LU_SGS
LINEAR_SOLVER_ERROR= 1E-4
LINEAR_SOLVER_ITER= 10
LINEAR_SOLVER_RELAX= 1.0
MGLEVEL= 3
MGCYCLE= 0
MG_CFL_REDUCTION= 0.9
MAX_CHILDREN= 250
MAX_DIMENSION= 0.1
MG_PRE_SMOOTH= ( 1, 2, 3, 3 )
MG_POST_SMOOTH= ( 0, 0, 0, 0 )
MG_CORRECTION_SMOOTH= ( 0, 0, 0, 0 )
MG_DAMP_RESTRICTION= 0.9
MG_DAMP_PROLONGATION= 0.9
FULLMG= NO
START_UP_ITER= 0
CONV_NUM_METHOD_FLOW= ROE
SPATIAL_ORDER_FLOW= 2ND_ORDER
SLOPE_LIMITER_FLOW= VENKATAKRISHNAN
LIMITER_COEFF= 0.5
AD_COEFF_FLOW= ( 0.15, 0.5, 0.02 )
TIME_DISCRE_FLOW= EULER_IMPLICIT
VISUALIZE_PART= NO
CONV_CRITERIA= RESIDUAL
RESIDUAL_REDUCTION= 12
RESIDUAL_MINVAL= -12
STARTCONV_ITER= 10
CAUCHY_ELEMS= 100
CAUCHY_EPS= 1E-10
CAUCHY_FUNC_FLOW= DRAG
CAUCHY_FUNC_LIN= DELTA_DRAG
FULLMG_CAUCHY_EPS= 1E-4
MESH_FILENAME= su2mesh.su2
MESH_FORMAT= SU2
DIVIDE_ELEMENTS= NO
CGNS_TO_SU2= NO
MESH_OUT_FILENAME= mesh_out.su2
SOLUTION_FLOW_FILENAME= restart_flow.dat
SOLUTION_LIN_FILENAME= solution_lin.dat
SOLUTION_ADJ_FILENAME= solution_adj.dat
OUTPUT_FORMAT= TECPLOT
CONV_FILENAME= history
RESTART_FLOW_FILENAME= restart_flow.dat
RESTART_ADJ_FILENAME= restart_adj.dat
RESTART_LIN_FILENAME= restart_lin.dat
VOLUME_FLOW_FILENAME= flow
VOLUME_ADJ_FILENAME= adjoint
VOLUME_LIN_FILENAME= linearized
GRAD_OBJFUNC_FILENAME= of_grad.dat
SURFACE_FLOW_FILENAME= surface_flow
SURFACE_ADJ_FILENAME= surface_adjoint
SURFACE_LIN_FILENAME= surface_linear
WRT_SOL_FREQ= 250.0
WRT_CON_FREQ= 1
DECOMPOSED= TRUE
DV_VALUE_NEW= 0
DV_VALUE_OLD= 0
NUMBER_PART= 2
DV_VALUE= 0
